Circuit: * C:\Users\Lucas\Documents\Actualmente Usando\Teoría de Circuitos\TP5\EJ1\Simulaciones\Bessel\ConexionCascadaBessel.asc

Direct Newton iteration for .op point succeeded.
.step run=1
.step run=2
.step run=3
.step run=4
.step run=5
.step run=6
.step run=7
.step run=8
.step run=9
.step run=10
.step run=11
.step run=12
.step run=13
.step run=14
.step run=15
.step run=16
.step run=17
.step run=18
.step run=19
.step run=20
.step run=21
.step run=22
.step run=23
.step run=24
.step run=25
.step run=26
.step run=27
.step run=28
.step run=29
.step run=30
.step run=31
.step run=32
.step run=33
.step run=34
.step run=35
.step run=36
.step run=37
.step run=38
.step run=39
.step run=40

Date: Sat Nov 02 18:56:27 2019
Total elapsed time: 6.742 seconds.

tnom = 27
temp = 27
method = trap
totiter = 18
traniter = 0
tranpoints = 0
accept = 0
rejected = 0
matrix size = 122
fillins = 123
solver = Normal
Matrix Compiler1:     604 opcodes
Matrix Compiler2: 11.45 KB object code size
