Circuit: * C:\Users\Lucas\Documents\Actualmente Usando\Teoría de Circuitos\TP5\EJ1\Simulaciones\Legendre\SegundaEtapa.asc

Direct Newton iteration for .op point succeeded.

Date: Wed Oct 23 17:37:21 2019
Total elapsed time: 0.128 seconds.

tnom = 27
temp = 27
method = trap
totiter = 18
traniter = 0
tranpoints = 0
accept = 0
rejected = 0
matrix size = 44
fillins = 25
solver = Normal
Matrix Compiler1:     161 opcodes
Matrix Compiler2: 3.73 KB object code size
