Circuit: * C:\Users\Carlos\Desktop\ITBA\3er año\1er cuatri\TC\TP5\TP5\EJ2\Simulaciones\Cascada.asc

Direct Newton iteration for .op point succeeded.
.step 1=1
.step 1=10.9
.step 1=20.8
.step 1=30.7
.step 1=40.6
.step 1=50.5
.step 1=60.4
.step 1=70.3
.step 1=80.2
.step 1=90.1
.step 1=100

Date: Sat Nov 09 04:24:19 2019
Total elapsed time: 1.469 seconds.

tnom = 27
temp = 27
method = trap
totiter = 18
traniter = 0
tranpoints = 0
accept = 0
rejected = 0
matrix size = 101
fillins = 63
solver = Normal
Matrix Compiler1:     428 opcodes
Matrix Compiler2: 8.97 KB object code size
